%%%%%%%%%%%%%%%%%%%%%%%%%%%%%%%%%%%%%%%%%%%%%%%%%%%%%%%%%%%%%%%%%%%%%%%%%%%%%%%%
%                                                                              %
% SU2 configuration file                                                       %
% Case description: Laminar flow over a flat plate (incompressible)            %
% Author: Thomas D. Economon						       %
% Date: 2018.06.10                                                             %
% File Version 6.1.0 "Falcon"                                                  %
%                                                                              %
%%%%%%%%%%%%%%%%%%%%%%%%%%%%%%%%%%%%%%%%%%%%%%%%%%%%%%%%%%%%%%%%%%%%%%%%%%%%%%%%

% ------------- DIRECT, ADJOINT, AND LINEARIZED PROBLEM DEFINITION ------------%
SOLVER= INC_NAVIER_STOKES
KIND_TURB_MODEL= NONE
MATH_PROBLEM= DIRECT
RESTART_SOL= NO

% INNER CONVERGENCE
%
INNER_ITER= 10
CONV_FIELD= RMS_PRESSURE
CONV_RESIDUAL_MINVAL= -16
CONV_STARTITER= 0
% ------------------------- UNSTEADY SIMULATION -------------------------------%
TIME_DOMAIN= YES
TIME_MARCHING= DUAL_TIME_STEPPING-2ND_ORDER
TIME_ITER= 500
TIME_STEP= 0.001
MAX_TIME= 1.0
UNST_CFL_NUMBER= 0.5

WINDOW_CAUCHY_CRIT= YES
WINDOW_START_ITER = 500
%
% Window used for reverse sweep and direct run. Options (SQUARE, HANN, HANN_SQUARE, BUMP) Square is default.
WINDOW_FUNCTION = HANN_SQUARE
UNST_ADJOINT_ITER= 0

% ---------------- INCOMPRESSIBLE FLOW CONDITION DEFINITION -------------------%
INC_DENSITY_MODEL= CONSTANT
INC_ENERGY_EQUATION = YES
INC_DENSITY_INIT= 1.13235
INC_VELOCITY_INIT= ( 69.1687, 0.0, 0.0 )
INC_TEMPERATURE_INIT= 297.62
INC_INLET_TYPE= VELOCITY_INLET
INC_INLET_DAMPING= 0.1
INC_OUTLET_TYPE= PRESSURE_OUTLET PRESSURE_OUTLET
INC_OUTLET_DAMPING= 0.1

% ---- IDEAL GAS, POLYTROPIC, VAN DER WAALS AND PENG ROBINSON CONSTANTS -------%
FLUID_MODEL= CONSTANT_DENSITY
SPECIFIC_HEAT_CP= 1004.703

% --------------------------- VISCOSITY MODEL ---------------------------------%
VISCOSITY_MODEL= CONSTANT_VISCOSITY
MU_CONSTANT= 1.83463e-05

% --------------------------- THERMAL CONDUCTIVITY MODEL ----------------------%
CONDUCTIVITY_MODEL= CONSTANT_PRANDTL
PRANDTL_LAM= 0.72
PRANDTL_TURB= 0.90

% ---------------------- REFERENCE VALUE DEFINITION ---------------------------%
REF_ORIGIN_MOMENT_X = 0.25
REF_ORIGIN_MOMENT_Y = 0.00
REF_ORIGIN_MOMENT_Z = 0.00
REF_LENGTH= 1.0
REF_AREA= 0.3048

% -------------------- BOUNDARY CONDITION DEFINITION --------------------------%
MARKER_ISOTHERMAL= ( wall, 148.81 )
MARKER_SYM= ( symmetry )
MARKER_INLET= ( inlet, 297.62, 69.1687, 1.0, 0.0, 0.0 )
MARKER_OUTLET= ( outlet, 0.0, farfield, 0.0 )
MARKER_PLOTTING= ( wall )
MARKER_MONITORING= ( wall )

% ------------- COMMON PARAMETERS DEFINING THE NUMERICAL METHOD ---------------%
NUM_METHOD_GRAD= WEIGHTED_LEAST_SQUARES
CFL_NUMBER= 15.0
CFL_ADAPT= NO
CFL_ADAPT_PARAM= ( 0.1, 2.0, 1.0, 1e10 )

% ------------------------ LINEAR SOLVER DEFINITION ---------------------------%
LINEAR_SOLVER= FGMRES
%LINEAR_SOLVER_PREC= ILU
%LINEAR_SOLVER_ILU_FILL_IN= 0
LINEAR_SOLVER_ERROR= 1E-1
LINEAR_SOLVER_ITER= 10

% -------------------------- MULTIGRID PARAMETERS -----------------------------%
MGLEVEL= 0
MGCYCLE= W_CYCLE
MG_PRE_SMOOTH= ( 1, 2, 3, 3 )
MG_POST_SMOOTH= ( 0, 0, 0, 0 )
MG_CORRECTION_SMOOTH= ( 0, 0, 0, 0 )
MG_DAMP_RESTRICTION= 0.8
MG_DAMP_PROLONGATION= 0.8

% -------------------- FLOW NUMERICAL METHOD DEFINITION -----------------------%
CONV_NUM_METHOD_FLOW= FDS
MUSCL_FLOW= YES
SLOPE_LIMITER_FLOW= NONE
%
% Coefficient for the Venkat's limiter (upwind scheme). A larger values decrease
%             the extent of limiting, values approaching zero cause
%             lower-order approximation to the solution (0.05 by default)
VENKAT_LIMITER_COEFF= 0.05
%
% Time discretization (RUNGE-KUTTA_EXPLICIT, EULER_IMPLICIT, EULER_EXPLICIT)
TIME_DISCRE_FLOW= EULER_IMPLICIT

% --------------------------- CONVERGENCE PARAMETERS --------------------------%
%
% Convergence criteria (CAUCHY, RESIDUAL)
CONV_WINDOW_FIELD= RMS_PRESSURE
%
% Min value of the residual (log10 of the residual)
%CONV_RESIDUAL_MINVAL= -8
%
% Start convergence criteria at iteration number
CONV_WINDOW_STARTITER= 0
%
% Number of elements to apply the criteria
CONV_WINDOW_CAUCHY_ELEMS= 10
%
% Epsilon to control the series convergence
CONV_WINDOW_CAUCHY_EPS= 1E-6

% ------------------------- INPUT/OUTPUT INFORMATION --------------------------%
%
% Mesh input file
MESH_FILENAME= mesh_flatplate_65x65.su2
%
% Mesh input file format (SU2, CGNS, NETCDF_ASCII)
MESH_FORMAT= SU2
%
% Mesh output file
MESH_OUT_FILENAME= mesh_out.su2
%
% Restart flow input file
SOLUTION_FILENAME= solution_flow.dat
%
% Restart adjoint input file
SOLUTION_ADJ_FILENAME= solution_adj.dat
%
% Output file format (PARAVIEW, TECPLOT, STL)
TABULAR_FORMAT= CSV
%
% Output file convergence history (w/o extension) 
CONV_FILENAME= history
%
% Output file restart flow
RESTART_FILENAME= restart_flow.dat
%
% Output file restart adjoint
RESTART_ADJ_FILENAME= restart_adj.dat
%
% Output file flow (w/o extension) variables
VOLUME_FILENAME= flow
%
% Output file adjoint (w/o extension) variables
VOLUME_ADJ_FILENAME= adjoint
%
% Output objective function gradient (using continuous adjoint)
GRAD_OBJFUNC_FILENAME= of_grad.dat
%
% Output file surface flow coefficient (w/o extension)
SURFACE_FILENAME= surface_flow
%
% Output file surface adjoint coefficient (w/o extension)
SURFACE_ADJ_FILENAME= surface_adjoint
%
%
% Screen output
SCREEN_OUTPUT= (INNER_ITER, WALL_TIME,  RMS_PRESSURE, RMS_VELOCITY-X, LIFT, DRAG)
